
These predictions were generated by HydroDyn on 19-Oct-2018 at 10:15:15.

    Time            Wave1Elev
   (sec)                  (m)
    0.0           0.0e+01
    1.0           1.0e+01
    2.0           0.0e+01
    3.0          -1.0e+01
    4.0           0.0e+01

This output file was closed on 19-Oct-2018 at 10:15:16.

